36
201707_ccpVDZ_m06_pentacene.out	Energy: -530972.2809698
C         -4.92832        1.40706        0.00000
C         -3.66829        0.72437        0.00000
C         -3.66829       -0.72437        0.00000
C         -4.92833       -1.40706        0.00000
C         -6.10190       -0.71539        0.00000
C         -6.10190        0.71539        0.00000
H         -4.92272        2.50120        0.00000
H         -4.92272       -2.50120        0.00000
H         -7.05444       -1.25120        0.00000
H         -7.05444        1.25120        0.00000
C         -2.46131        1.40464        0.00000
C         -1.22302        0.72525        0.00000
C         -1.22302       -0.72525        0.00000
C         -2.46131       -1.40464        0.00000
H         -2.46202        2.50003        0.00000
H         -2.46202       -2.50003        0.00000
C          0.00000        1.40515        0.00000
C          1.22302        0.72525        0.00000
C          1.22302       -0.72525        0.00000
C          0.00000       -1.40515        0.00000
H          0.00000        2.50041        0.00000
H          0.00000       -2.50041        0.00000
C          2.46131        1.40464        0.00000
C          2.46131       -1.40464        0.00000
H          2.46202        2.50003        0.00000
H          2.46202       -2.50003        0.00000
C          4.92832        1.40706        0.00000
C          6.10190        0.71539        0.00000
C          6.10190       -0.71539        0.00000
C          4.92833       -1.40706        0.00000
H          4.92272        2.50120        0.00000
H          7.05444        1.25120        0.00000
H          7.05444       -1.25120        0.00000
H          4.92272       -2.50120        0.00000
C          3.66829       -0.72437        0.00000
C          3.66829        0.72437        0.00000
