%LindaWorkers=in-cn0129
%NProcShared=24
%Mem=59800mb
# opt aug-cc-pvdz geom=connectivity m06

pentacene

0 1
 C                 -4.92832400    1.40706300    0.00000000
 C                 -3.66829400    0.72437100    0.00000000
 C                 -3.66829400   -0.72437100    0.00000000
 C                 -4.92832500   -1.40706300    0.00000000
 C                 -6.10189700   -0.71539000    0.00000000
 C                 -6.10189700    0.71539100    0.00000000
 H                 -4.92271500    2.50120100    0.00000000
 H                 -4.92271600   -2.50120000    0.00000000
 H                 -7.05443700   -1.25120300    0.00000000
 H                 -7.05443600    1.25120400    0.00000000
 C                 -2.46131100    1.40463900    0.00000000
 C                 -1.22302000    0.72524600    0.00000000
 C                 -1.22302000   -0.72524700    0.00000000
 C                 -2.46131200   -1.40463900    0.00000000
 H                 -2.46201600    2.50003300    0.00000000
 H                 -2.46201600   -2.50003300    0.00000000
 C                  0.00000000    1.40514900    0.00000000
 C                  1.22302000    0.72524600    0.00000000
 C                  1.22302000   -0.72524700    0.00000000
 C                  0.00000000   -1.40515000    0.00000000
 H                  0.00000000    2.50041200    0.00000000
 H                  0.00000000   -2.50041300    0.00000000
 C                  2.46131100    1.40463900    0.00000000
 C                  2.46131200   -1.40463900    0.00000000
 H                  2.46201600    2.50003300    0.00000000
 H                  2.46201600   -2.50003300    0.00000000
 C                  4.92832400    1.40706300    0.00000000
 C                  6.10189700    0.71539100    0.00000000
 C                  6.10189700   -0.71539000    0.00000000
 C                  4.92832500   -1.40706300    0.00000000
 H                  4.92271500    2.50120100    0.00000000
 H                  7.05443600    1.25120400    0.00000000
 H                  7.05443700   -1.25120300    0.00000000
 H                  4.92271600   -2.50120000    0.00000000
 C                  3.66829400   -0.72437100    0.00000000
 C                  3.66829400    0.72437100    0.00000000

 1 2 1.5 6 2.0 7 1.0
 2 3 1.0 11 2.0
 3 4 1.5 14 2.0
 4 5 2.0 8 1.0
 5 6 1.5 9 1.0
 6 10 1.0
 7
 8
 9
 10
 11 12 1.5 15 1.0
 12 13 1.0 17 1.5
 13 14 1.5 20 1.5
 14 16 1.0
 15
 16
 17 18 1.5 21 1.0
 18 19 1.0 23 1.5
 19 20 1.5 24 1.5
 20 22 1.0
 21
 22
 23 25 1.0 36 2.0
 24 26 1.0 35 2.0
 25
 26
 27 28 2.0 31 1.0 36 1.5
 28 29 1.5 32 1.0
 29 30 2.0 33 1.0
 30 34 1.0 35 1.5
 31
 32
 33
 34
 35 36 1.0
 36

