%LindaWorkers=ic-node0047
%NProcShared=8
%Mem=11800mb
%chk=201707_ccpVDZ_m06_12Hpentacene.chk
# opt freq cc-pvdz geom=connectivity m06

Title Card Required

0 1
 C                  0.30316885    2.13787244    1.60581705
 C                  1.62548081    1.83495273    1.25417073
 C                  2.30705553    2.63978495    0.33140399
 C                  1.66613563    3.74718713   -0.24026422
 C                  0.34375046    4.04999322    0.11119763
 C                 -0.33769712    3.24540030    1.03433275
 H                 -0.21714032    1.52351656    2.31061861
 H                  2.18645987    4.36153208   -0.94506417
 H                 -0.14561076    4.89552275   -0.32527162
 H                 -1.34731401    3.47668576    1.30281138
 C                  2.26615152    0.72709224    1.82518663
 C                  3.58837697    0.42387096    1.47336690
 C                  4.27071308    1.23010319    0.55231178
 C                  3.62961466    2.33730901   -0.01957871
 H                  1.74567512    0.11253339    2.52968768
 H                  4.15005613    2.95188868   -0.72408741
 C                  4.22732599   -0.68618444    2.04222990
 C                  5.54898147   -0.99190855    1.69015465
 C                  6.23684238   -0.17572667    0.77654563
 C                  5.59433759    0.93001551    0.20359505
 H                  3.70530235   -1.30147651    2.74494391
 H                  6.11501114    1.54608708   -0.49943758
 C                  6.17789873   -2.11657082    2.24853094
 C                  7.56708438   -0.46346950    0.44025487
 H                  5.64796805   -2.73850689    2.93937752
 H                  8.09201544    0.15349409   -0.25881831
 C                  8.10402727   -3.63247349    2.37467394
 C                  9.57605286   -3.96241808    2.00609351
 C                 10.25715746   -2.62055825    1.89037726
 C                  9.53934159   -1.85444006    0.78503285
 H                  7.54298614   -4.30577407    2.98851364
 H                  9.63015139   -4.50092442    1.08306357
 H                 11.30186811   -2.69872321    1.67273097
 H                 10.02625436   -1.57475039   -0.12578526
 C                  8.20524605   -1.55795692    1.03203336
 C                  7.49665844   -2.42833214    1.89365259
 H                 10.13051581   -2.11684139    2.82586174
 H                 10.03217529   -4.54979782    2.77540318

 1 2 1.5 6 1.5 7 1.0
 2 3 1.5 11 1.5
 3 4 1.5 14 1.5
 4 5 1.5 8 1.0
 5 6 1.5 9 1.0
 6 10 1.0
 7
 8
 9
 10
 11 12 1.5 15 1.0
 12 13 1.5 17 1.5
 13 14 1.5 20 1.5
 14 16 1.0
 15
 16
 17 18 1.5 21 1.0
 18 19 1.5 23 1.5
 19 20 1.5 24 1.5
 20 22 1.0
 21
 22
 23 25 1.0 36 1.5
 24 26 1.0 35 1.5
 25
 26
 27 28 1.0 31 1.0 36 1.5
 28 32 1.0 38 1.0 29 1.0
 29 30 1.0 33 1.0 37 1.0
 30 34 1.0 35 1.5
 31
 32
 33
 34
 35 36 1.5
 36
 37
 38

