%LindaWorkers=in-cn0056
%NProcShared=24
%Mem=59800mb
%chk=201708_augccpVTZ_m06_12Hpentacene.chk
# opt=calcfc aug-cc-pvtz nosymm scf=qc geom=connectivity m06

Title Card Required

0 1
 C                  4.98800900    1.40096500    0.06874600
 C                  3.72602700    0.72510500    0.03597400
 C                  3.72602500   -0.72510700   -0.03599900
 C                  4.98800600   -1.40097000   -0.06875900
 C                  6.14855300   -0.71483300   -0.03502900
 C                  6.14855500    0.71482500    0.03502700
 H                  4.98398000    2.48337600    0.12167700
 H                  4.98397500   -2.48338100   -0.12169000
 H                  7.09370300   -1.24140900   -0.06080500
 H                  7.09370600    1.24139800    0.06081300
 C                  2.53835900    1.39975500    0.07030900
 C                  1.28966800    0.72790500    0.03765500
 C                  1.28966600   -0.72790100   -0.03770300
 C                  2.53835600   -1.39975400   -0.07034500
 H                  2.54092500    2.48355000    0.12422700
 H                  2.54092100   -2.48354900   -0.12426000
 C                  0.09672600    1.40198200    0.07459000
 C                 -1.15147300    0.73131700    0.04133700
 C                 -1.15147600   -0.73130800   -0.04139600
 C                  0.09672300   -1.40197500   -0.07464700
 H                  0.09937700    2.48557300    0.12956100
 H                  0.09937500   -2.48556700   -0.12961200
 C                 -2.34003900    1.40756800    0.06529900
 C                 -2.34004200   -1.40755700   -0.06535200
 H                 -2.33592000    2.49216300    0.09506800
 H                 -2.33592600   -2.49215100   -0.09515600
 C                 -4.76775900    1.40106500   -0.15924800
 C                 -6.03170400    0.64915700   -0.38962500
 C                 -6.03169400   -0.64917200    0.38979400
 C                 -4.76774400   -1.40106000    0.15933200
 H                 -4.76214700    2.48270100   -0.22928700
 H                 -6.11130400    0.42481400   -1.46791600
 H                 -6.90685600   -1.25000300    0.13927900
 H                 -4.76211500   -2.48269500    0.22939400
 C                 -3.59666700   -0.73773300    0.00507900
 C                 -3.59666400    0.73774600   -0.00508100
 H                 -6.11130000   -0.42492200    1.46809700
 H                 -6.90686800    1.24999200   -0.13914300

 1 2 1.5 6 2.0 7 1.0
 2 3 1.0 11 2.0
 3 4 1.5 14 2.0
 4 5 2.0 8 1.0
 5 6 1.5 9 1.0
 6 10 1.0
 7
 8
 9
 10
 11 12 1.5 15 1.0
 12 13 1.0 17 2.0
 13 14 1.5 20 2.0
 14 16 1.0
 15
 16
 17 18 1.5 21 1.0
 18 19 1.0 23 2.0
 19 20 1.5 24 2.0
 20 22 1.0
 21
 22
 23 25 1.0 36 1.5
 24 26 1.0 35 1.5
 25
 26
 27 28 1.0 31 1.0 36 2.0
 28 29 1.0 32 1.0 38 1.0
 29 30 1.0 33 1.0 37 1.0
 30 34 1.0 35 2.0
 31
 32
 33
 34
 35 36 1.0
 36
 37
 38

