%LindaWorkers=in-cn0111
%NProcShared=24
%Mem=59800mb
%chk=20171117_ccpVTZ_BHandHlyp_hexaaquaFe.chk
# opt freq gen geom=connectivity m06

HexaAquaFe(III) Lowspin

3 2
 Fe                -0.99173958    0.41988290   -0.11900453
 O                 -1.23914621    2.42923683   -0.01892574
 H                 -2.08894040    2.66626113   -0.39743832
 O                  1.02244723    0.60822185   -0.12944100
 H                  1.42125157   -0.20105931    0.19861568
 O                 -0.96903772    0.26375210    1.89783379
 H                 -1.80950086   -0.08730100    2.20111479
 O                 -3.00585435    0.23070376   -0.10995174
 H                 -3.24552331   -0.65321175   -0.39778477
 O                 -0.74489642   -1.58961921   -0.21748652
 H                 -0.96075583   -1.89559327   -1.10142392
 O                 -1.01271116    0.57668274   -2.13580968
 H                 -0.57935602    1.39220032   -2.39790276
 H                 -1.92089579    0.58261104   -2.44689011
 H                 -1.32455237   -2.01478681    0.41875415
 H                 -1.20789827    2.71020315    0.89849730
 H                 -0.82624014    1.13082307    2.28432427
 H                 -3.33718463    0.37868200    0.77882619
 H                  1.32379779    0.77293809   -1.02592015

 1
 2 3 1.0 16 1.0
 3
 4 5 1.0 19 1.0
 5
 6 7 1.0 17 1.0
 7
 8 9 1.0 18 1.0
 9
 10 11 1.0 15 1.0
 11
 12 13 1.0 14 1.0
 13
 14
 15
 16
 17
 18
 19

 Fe

 LANL2DZ

 *********

 O H

 Def2TZVP

 *********
