%LindaWorkers=in-cn0098
%NProcShared=24
%Mem=59800mb
# opt pbepbe geom=connectivity def2svp empiricaldispersion=gd3
integral=superfinegrid

MOF-5 Node Optimization

0 1
 O                  0.01314800    0.00906100   -0.01473200
 Zn                -0.40179200   -1.30647300   -1.37846800
 Zn                 1.81402000    0.69539200   -0.27392800
 Zn                -1.27015900    1.48323200   -0.11637700
 Zn                -0.10050100   -0.81495700    1.74762500
 O                  2.92975000    0.41932800    1.30605800
 O                 -0.36815200    3.15672100   -0.57394800
 O                 -2.17478300    1.73807700    1.59667000
 O                 -1.25627000    0.20687500    2.94414700
 O                 -0.80487900   -2.63602200    1.62118100
 O                  1.67925600   -0.95017700    2.55442500
 O                  2.69247400   -0.22500900   -1.75759400
 O                  1.79776900    2.60820300   -0.66601900
 O                 -2.63044800    1.14491400   -1.47361600
 O                  1.11321300   -1.58061500   -2.58065700
 O                 -0.86428700   -3.02887600   -0.58026800
 O                 -1.92773200   -0.73421500   -2.46138100
 C                  2.26433600   -1.07638400   -2.57570200
 C                 -1.00858900   -3.36869600    0.62113500
 C                  2.74178800   -0.33045100    2.29555500
 C                 -2.03101500    1.16778900    2.70646900
 C                 -2.71359200    0.23772400   -2.33912000
 C                  0.84698800    3.42531900   -0.74322400
 C                  2.81413800   -2.47937800   -4.56800500
 C                  3.69454400   -2.89394900   -5.54952000
 C                  4.97192400   -2.36026900   -5.60446300
 C                  5.36968700   -1.41190100   -4.67594400
 C                  4.49075300   -0.99628900   -3.69399500
 C                  3.20811500   -1.52765200   -3.63463000
 H                  1.81257100   -2.88608900   -4.51028600
 H                  3.38450400   -3.63587800   -6.27578100
 H                  6.36928700   -0.99550000   -4.71886200
 H                  4.78448000   -0.25545900   -2.96110200
 H                  5.66138200   -2.68486300   -6.37552500
 C                 -5.81626100    1.43798300   -4.10144800
 C                 -4.73961600    1.38423500   -3.23681300
 C                 -3.85314200    0.31535700   -3.29197000
 C                 -4.05276300   -0.69655100   -4.22327200
 C                 -5.13038400   -0.64148800   -5.08717400
 C                 -6.01396200    0.42425300   -5.02483500
 H                 -6.50732500    2.27123700   -4.05342700
 H                 -4.57311700    2.16502500   -2.50556100
 H                 -3.35568800   -1.52462500   -4.25144400
 H                 -5.28624700   -1.43484300   -5.80871700
 H                 -6.86107400    0.46478600   -5.69990000
 C                 -1.46342800   -4.76123600    0.87869500
 C                 -1.69307900   -5.62851800   -0.18252100
 C                 -2.12120100   -6.92019300    0.05687600
 C                 -2.32310700   -7.35265500    1.35769300
 C                 -2.09550700   -6.49170000    2.41945100
 C                 -1.66677500   -5.19966600    2.18172500
 H                 -1.53214400   -5.27410500   -1.19311500
 H                 -2.29928800   -7.59371400   -0.77309500
 H                 -2.65920500   -8.36597000    1.54515400
 H                 -2.25275500   -6.83059400    3.43684200
 H                 -1.48516900   -4.51198900    2.99829900
 C                  6.13102900   -0.02172300    3.90523200
 C                  5.07649200    0.15336500    3.02926400
 C                  3.87458600   -0.51073000    3.24280200
 C                  3.73847100   -1.34966600    4.34207400
 C                  4.79474300   -1.52534700    5.21591700
 C                  5.99098500   -0.86220800    4.99836800
 H                  7.06725600    0.49704300    3.73527000
 H                  5.16752800    0.80465300    2.16897900
 H                  2.79745200   -1.86298200    4.49518600
 H                  4.68613800   -2.18186400    6.07108200
 H                  6.81882000   -0.99996200    5.68448500
 C                 -3.57132800    1.52596900    6.12395600
 C                 -2.79149500    1.06212300    5.08127600
 C                 -2.86228800    1.66986000    3.83387800
 C                 -3.71991900    2.74626200    3.64112200
 C                 -4.49667800    3.21045000    4.68565800
 C                 -4.42386500    2.60038700    5.92727900
 H                 -3.51448500    1.04906600    7.09534700
 H                 -2.12044000    0.22335900    5.21736600
 H                 -3.76896700    3.20796000    2.66297300
 H                 -5.16402100    4.05020000    4.53197400
 H                 -5.03358700    2.96510700    6.74600200
 C                  0.51773000    7.11214600   -1.43388800
 C                  1.84168500    7.47246600   -1.62598900
 C                  2.84151900    6.51793600   -1.53431700
 C                  2.51884600    5.20423600   -1.25012000
 C                  1.19260100    4.83828300   -1.05581000
 C                  0.19320500    5.79924100   -1.14809000
 H                 -0.26403500    7.85917300   -1.50561400
 H                  2.09534800    8.50259700   -1.84834200
 H                  3.87689600    6.80023800   -1.68426200
 H                  3.29557100    4.42958900   -1.17181500
 H                 -0.85047400    5.49039300   -0.99004100
 H                 -0.22110140   -1.68937647    3.61777744
 H                 -0.73246292   -1.85634906    3.88353965

 1 2 1.0 3 1.0 4 1.0 5 1.0
 2 15 1.0 16 1.0 17 1.0
 3 6 1.0 12 1.0 13 1.0
 4 7 1.0 8 1.0 14 1.0
 5 9 1.0 10 1.0 11 1.0
 6 20 2.0
 7 23 2.0
 8 21 2.0
 9 21 2.0
 10 19 2.0
 11 20 2.0
 12 18 2.0
 13 23 2.0
 14 22 2.0
 15 18 2.0
 16 19 2.0
 17 22 2.0
 18 29 1.0
 19 46 1.0
 20 59 1.0
 21 70 1.0
 22 37 1.0
 23 83 1.0
 24 25 2.0 29 1.5 30 1.0
 25 26 2.0 31 1.0
 26 27 2.0 34 1.0
 27 28 2.0 32 1.0
 28 29 1.5 33 1.0
 29
 30
 31
 32
 33
 34
 35 36 2.0 40 2.0 41 1.0
 36 37 1.5 42 1.0
 37 38 1.5
 38 39 2.0 43 1.0
 39 40 2.0 44 1.0
 40 45 1.0
 41
 42
 43
 44
 45
 46 47 1.5 51 1.5
 47 48 2.0 52 1.0
 48 49 2.0 53 1.0
 49 50 2.0 54 1.0
 50 51 2.0 55 1.0
 51 56 1.0
 52
 53
 54
 55
 56
 57 58 2.0 62 2.0 63 1.0
 58 59 1.5 64 1.0
 59 60 1.5
 60 61 2.0 65 1.0
 61 62 2.0 66 1.0
 62 67 1.0
 63
 64
 65
 66
 67
 68 69 2.0 73 2.0 74 1.0
 69 70 1.5 75 1.0
 70 71 1.5
 71 72 2.0 76 1.0
 72 73 2.0 77 1.0
 73 78 1.0
 74
 75
 76
 77
 78
 79 80 2.0 84 2.0 85 1.0
 80 81 2.0 86 1.0
 81 82 2.0 87 1.0
 82 83 1.5 88 1.0
 83 84 1.5
 84 89 1.0
 85
 86
 87
 88
 89
 90 91 1.0
 91

