%mem=80GB
%nprocshared=68
%NProcLinda=2
%chk=mof5_node_bh2.chk
# opt pbepbe geom=connectivity def2svp empiricaldispersion=gd3
integral=superfinegrid

MOF-5 Node Optimization

0 1
 O               -1    0.20135966    0.13939454   -0.15554725
 Zn              -1   -0.09327634   -1.26730946   -1.45827325
 Zn              -1    1.88252666    1.04624554   -0.51967625
 Zn              -1   -1.26933734    1.42785054   -0.24074225
 Zn              -1    0.27345166   -0.62896846    1.63416075
 O               -1    3.09148266    0.97578754    1.01358275
 O               -1   -0.61768534    3.18769754   -0.79014425
 O               -1   -2.12578534    1.62309854    1.50459475
 O               -1   -0.95571834    0.27498954    2.85249675
 O               -1   -0.18781534   -2.52970746    1.59545175
 O               -1    2.08821566   -0.50016846    2.35980375
 O               -1    2.81112966    0.19639754   -2.01484725
 O               -1    1.59593166    2.92508754   -0.96762925
 O               -1   -2.62944734    0.86554654   -1.52170225
 O               -1    1.39195666   -1.38330446   -2.72171325
 O               -1   -0.28871134   -3.00573346   -0.58800125
 O               -1   -1.72649834   -0.93938446   -2.48478325
 C               -1    2.46516566   -0.73258046   -2.78604825
 C               -1   -0.33512934   -3.31821646    0.62847675
 C               -1    3.04708966    0.24381854    2.03282375
 C               -1   -1.86023634    1.11692654    2.62300575
 C               -1   -2.62840434   -0.07517446   -2.35479725
 C               -1    0.54273266    3.60712354   -1.02440225
 C               -1    3.11061766   -2.12189846   -4.75915125
 C               -1    3.99550166   -2.45234446   -5.76818225
 C               -1    5.18726966   -1.75803246   -5.89914825
 C               -1    5.49500366   -0.73298646   -5.01918025
 C               -1    4.61145866   -0.40130046   -4.00981625
 C               -1    3.41436566   -1.09384746   -3.87425725
 H               -1    2.17524566   -2.65414046   -4.64219825
 H               -1    3.75588766   -3.25410646   -6.45651425
 H               -1    6.42777566   -0.19087046   -5.12155225
 H               -1    4.83534766    0.39747154   -3.31406125
 H               -1    5.88012166   -2.01683446   -6.69175625
 C               -1   -5.93530134    0.64371354   -4.00422425
 C               -1   -4.82509834    0.76271454   -3.19001525
 C               -1   -3.80783434   -0.18192846   -3.25483725
 C               -1   -3.91105034   -1.24403346   -4.14501125
 C               -1   -5.02236234   -1.36183346   -4.95848125
 C               -1   -6.03603634   -0.41966046   -4.88653125
 H               -1   -6.72810934    1.38029954   -3.94867625
 H               -1   -4.73256734    1.58432654   -2.49110525
 H               -1   -3.11212934   -1.97398646   -4.18117825
 H               -1   -5.10228034   -2.19415046   -5.64782325
 H               -1   -6.90909434   -0.51484346   -5.52187625
 C               -1   -0.58985234   -4.74825146    0.94873575
 C               -1   -0.74751034   -5.67567946   -0.07406425
 C               -1   -0.98987434   -7.00292446    0.22376675
 C               -1   -1.07687234   -7.41118446    1.54500475
 C               -1   -0.92035234   -6.49027946    2.56863175
 C               -1   -0.67736034   -5.16253846    2.27242875
 H               -1   -0.67833234   -5.33970546   -1.10126625
 H               -1   -1.11232834   -7.72332546   -0.57637325
 H               -1   -1.26725534   -8.45244746    1.77831975
 H               -1   -0.98764734   -6.81015146    3.60198275
 H               -1   -0.55387234   -4.42813146    3.05860375
 C               -1    6.43105866    1.05201354    3.47119075
 C               -1    5.32616766    1.05571854    2.64099475
 C               -1    4.23321166    0.24779354    2.93065775
 C               -1    4.25667666   -0.56176446    4.05973075
 C               -1    5.36327366   -0.56590646    4.88774075
 C               -1    6.45057666    0.24018454    4.59436775
 H               -1    7.28206966    1.68267154    3.24189275
 H               -1    5.29316566    1.68203254    1.75827475
 H               -1    3.39947866   -1.18825746    4.27226775
 H               -1    5.37935266   -1.19988946    5.76633275
 H               -1    7.31791566    0.23691754    5.24456475
 C               -1   -3.28714834    1.39221954    6.09693275
 C               -1   -2.49793234    0.99756854    5.03304175
 C               -1   -2.70195234    1.54560954    3.77273075
 C               -1   -3.70223334    2.49260754    3.58844575
 C               -1   -4.48837134    2.88806654    4.65403475
 C               -1   -4.28229934    2.33776754    5.90854975
 H               -1   -3.12609934    0.96205354    7.07840575
 H               -1   -1.71634334    0.25950554    5.16242575
 H               -1   -3.85383534    2.90848854    2.60031375
 H               -1   -5.26716734    3.62696254    4.50687975
 H               -1   -4.89948134    2.64849254    6.74378975
 C               -1   -0.30191034    7.19172954   -1.80881225
 C               -1    0.95311766    7.71548054   -2.07372725
 C               -1    2.07373866    6.90426054   -2.00070725
 C               -1    1.94062966    5.57063454   -1.66245125
 C               -1    0.68417666    5.04108154   -1.39505325
 C               -1   -0.43688934    5.85870554   -1.46889325
 H               -1   -1.17821034    7.82669454   -1.86597425
 H               -1    1.05814966    8.76133754   -2.33850125
 H               -1    3.05515566    7.31437654   -2.20761125
 H                0    2.81628066    4.90834754   -1.59782125
 H                0   -1.42294334    5.42198854   -1.25284925
 H                0   -0.90901298   -1.64932480    2.43848558
 H                0   -1.22202725   -1.27318538    2.78567601

 1 2 1.0 3 1.0 4 1.0 5 1.0
 2 15 1.0 16 1.0 17 1.0
 3 6 1.0 12 1.0 13 1.0
 4 7 1.0 8 1.0 14 1.0
 5 9 1.0 10 1.0 11 1.0
 6 20 2.0
 7 23 2.0
 8 21 2.0
 9 21 2.0
 10 19 2.0
 11 20 2.0
 12 18 2.0
 13 23 2.0
 14 22 2.0
 15 18 2.0
 16 19 2.0
 17 22 2.0
 18 29 1.0
 19 46 1.0
 20 59 1.0
 21 70 1.0
 22 37 1.0
 23 83 1.0
 24 25 2.0 29 1.5 30 1.0
 25 26 2.0 31 1.0
 26 27 2.0 34 1.0
 27 28 2.0 32 1.0
 28 29 1.5 33 1.0
 29
 30
 31
 32
 33
 34
 35 36 2.0 40 2.0 41 1.0
 36 37 1.5 42 1.0
 37 38 1.5
 38 39 2.0 43 1.0
 39 40 2.0 44 1.0
 40 45 1.0
 41
 42
 43
 44
 45
 46 47 1.5 51 1.5
 47 48 2.0 52 1.0
 48 49 2.0 53 1.0
 49 50 2.0 54 1.0
 50 51 2.0 55 1.0
 51 56 1.0
 52
 53
 54
 55
 56
 57 58 2.0 62 2.0 63 1.0
 58 59 1.5 64 1.0
 59 60 1.5
 60 61 2.0 65 1.0
 61 62 2.0 66 1.0
 62 67 1.0
 63
 64
 65
 66
 67
 68 69 2.0 73 2.0 74 1.0
 69 70 1.5 75 1.0
 70 71 1.5
 71 72 2.0 76 1.0
 72 73 2.0 77 1.0
 73 78 1.0
 74
 75
 76
 77
 78
 79 80 2.0 84 2.0 85 1.0
 80 81 2.0 86 1.0
 81 82 2.0 87 1.0
 82 83 1.5 88 1.0
 83 84 1.5
 84 89 1.0
 85
 86
 87
 88
 89
 90 91 1.0
 91

