%lindaworkers=in-cn0533
%nprocshared=24
%mem=59800MB
%chk=20171201_def2svp_m06_60c12h24.chk
# opt=maxcycle=200 geom=connectivity def2svp integral=superfinegrid m06

Title Card Required

0 1
 C                 -6.85444300   -0.13487700   -0.16841400
 H                 -7.04021200   -0.81832800    0.67765300
 H                 -6.88444300   -0.74368300   -1.08812600
 H                 -7.69705200    0.57265200   -0.21284800
 C                 -5.52036300    0.56989000   -0.02104000
 H                 -5.36871300    1.27332400   -0.86198800
 H                 -5.52345100    1.19984300    0.88909700
 C                 -4.34402300   -0.38859700    0.04249700
 H                 -4.33509900   -1.02083500   -0.86810100
 H                 -4.48926000   -1.09459100    0.88490400
 C                 -3.00139300    0.30276500    0.18946400
 H                 -3.00708700    0.93031100    1.10287300
 H                 -2.85036900    1.00932800   -0.64970200
 C                 -1.82467700   -0.66362400    0.24692800
 H                 -1.80065600   -1.27768700   -0.67320500
 H                 -1.99464100   -1.37371900    1.08119900
 C                 -0.51188500    0.02300500    0.42808800
 H                 -0.40545700    0.63496200    1.33863500
 C                  0.51188500   -0.02300500   -0.42808800
 H                  0.34663974    0.32563996   -1.46058731
 C                  1.87632772   -0.54382300   -0.12027986
 H                  1.93651258   -0.82351799    0.94857166
 H                  2.62608594    0.25971657   -0.26628520
 C                  2.27083239   -1.73401824   -0.98611571
 H                  2.18693673   -1.45504471   -2.05536670
 H                  1.53667554   -2.54975212   -0.83836242
 C                  3.67095190   -2.24710419   -0.70568001
 H                  4.40109943   -1.42624947   -0.85485442
 H                  3.75560134   -2.52005756    0.36545219
 C                  4.06776754   -3.43709500   -1.56181626
 H                  3.33431865   -4.25207013   -1.41055853
 H                  3.97959658   -3.15998128   -2.62982072
 C                  5.46825332   -3.93887595   -1.27019912
 H                  5.74142294   -4.80105577   -1.89835986
 H                  6.21936708   -3.14995764   -1.44592451
 H                  5.56859053   -4.25163617   -0.21685760

 1 2 1.0 3 1.0 4 1.0 5 1.0
 2
 3
 4
 5 6 1.0 7 1.0 8 1.0
 6
 7
 8 9 1.0 10 1.0 11 1.0
 9
 10
 11 12 1.0 13 1.0 14 1.0
 12
 13
 14 15 1.0 16 1.0 17 1.0
 15
 16
 17 18 1.0 19 2.0
 18
 19 20 1.0 21 1.0
 20
 21 22 1.0 23 1.0 24 1.0
 22
 23
 24 25 1.0 26 1.0 27 1.0
 25
 26
 27 28 1.0 29 1.0 30 1.0
 28
 29
 30 31 1.0 32 1.0 33 1.0
 31
 32
 33 34 1.0 35 1.0 36 1.0
 34
 35
 36

