14
20170630_augccpVTZ_ccsd_flourohexa135triene.out	Energy: -208664.6635782
C          2.52241        0.40027       -0.00000
H          3.38329        1.05523       -0.00000
C          1.25781        0.80136        0.00000
H          1.09545        1.87307        0.00001
C          0.11035       -0.06362        0.00001
H          0.29259       -1.13452        0.00001
C         -1.15352        0.37960        0.00000
H         -1.33881        1.45243       -0.00000
C         -2.30876       -0.47852        0.00001
H         -2.11383       -1.54818        0.00002
C         -3.56494       -0.03988       -0.00001
H         -3.78654        1.02140       -0.00002
F          2.85496       -0.88856       -0.00001
H         -4.40682       -0.71764       -0.00001
