%LindaWorkers=in-cn0630
%NProcShared=24
%Mem=59800mb
%chk=20171201_def2svp_m06_180c12h24.chk
# hf/sto-3g geom=connectivity

Title Card Required

0 1
 C                 -6.85444300   -0.13487700   -0.16841400
 H                 -7.04021200   -0.81832800    0.67765300
 H                 -6.88444300   -0.74368300   -1.08812600
 H                 -7.69705200    0.57265200   -0.21284800
 C                 -5.52036300    0.56989000   -0.02104000
 H                 -5.36871300    1.27332400   -0.86198800
 H                 -5.52345100    1.19984300    0.88909700
 C                 -4.34402300   -0.38859700    0.04249700
 H                 -4.33509900   -1.02083500   -0.86810100
 H                 -4.48926000   -1.09459100    0.88490400
 C                 -3.00139300    0.30276500    0.18946400
 H                 -3.00708700    0.93031100    1.10287300
 H                 -2.85036900    1.00932800   -0.64970200
 C                 -1.82467700   -0.66362400    0.24692800
 H                 -1.80065600   -1.27768700   -0.67320500
 H                 -1.99464100   -1.37371900    1.08119900
 C                 -0.51188500    0.02300500    0.42808800
 H                 -0.40545700    0.63496200    1.33863500
 C                  0.51188500   -0.02300500   -0.42808800
 H                  1.42066071    0.55289309   -0.18854215
 C                  0.52790644   -0.76935319   -1.72053098
 H                 -0.41329712   -1.34003732   -1.83344936
 H                  1.34036085   -1.52359977   -1.70785374
 C                  0.72897512    0.13511580   -2.93023246
 H                  1.66106460    0.72051616   -2.80108917
 H                 -0.08515414    0.88505443   -2.96224350
 C                  0.78359672   -0.61904112   -4.24571708
 H                  1.59992654   -1.36824961   -4.20746573
 H                 -0.14654410   -1.20907592   -4.37097781
 C                  0.97821181    0.27783277   -5.45577999
 H                  0.16205560    1.02476163   -5.48735439
 H                  1.90675451    0.86591667   -5.32476321
 C                  1.03022467   -0.48922765   -6.76233964
 H                  1.17179373    0.17407067   -7.62983899
 H                  1.85845658   -1.21824860   -6.76427875
 H                  0.09919305   -1.05753973   -6.92852136

 1 2 1.0 3 1.0 4 1.0 5 1.0
 2
 3
 4
 5 6 1.0 7 1.0 8 1.0
 6
 7
 8 9 1.0 10 1.0 11 1.0
 9
 10
 11 12 1.0 13 1.0 14 1.0
 12
 13
 14 15 1.0 16 1.0 17 1.0
 15
 16
 17 18 1.0 19 2.0
 18
 19 20 1.0 21 1.0
 20
 21 22 1.0 23 1.0 24 1.0
 22
 23
 24 25 1.0 26 1.0 27 1.0
 25
 26
 27 28 1.0 29 1.0 30 1.0
 28
 29
 30 31 1.0 32 1.0 33 1.0
 31
 32
 33 34 1.0 35 1.0 36 1.0
 34
 35
 36

