%LindaWorkers=in-cn0069
%NProcShared=24
%Mem=59800mb
%chk=20171201_def2svp_m06_0c12h24.chk
# hf/sto-3g geom=connectivity

Title Card Required

0 1
 C                 -1.03022469    0.48922767    6.76233963
 H                 -1.85845654    1.21824962    6.76427871
 H                 -0.09919305    1.05753975    6.92852137
 H                 -1.17179373   -0.17407066    7.62983899
 C                 -0.97821180   -0.27783275    5.45578001
 H                 -0.16205560   -1.02476164    5.48735439
 H                 -1.90675453   -0.86591666    5.32476320
 C                 -0.78359673    0.61904114    4.24571710
 H                  0.14654408    1.20907594    4.37097781
 H                 -1.59992654    1.36824962    4.20746574
 C                 -0.72897510   -0.13511578    2.93023245
 H                 -1.66106458   -0.72051616    2.80108917
 H                  0.08515413   -0.88505443    2.96224350
 C                 -0.52790645    0.76935319    1.72053098
 H                  0.41329713    1.34003732    1.83344935
 H                 -1.34036085    1.52359977    1.70785375
 C                 -0.51188500    0.02300500    0.42808800
 H                 -1.42066071   -0.55289311    0.18854216
 C                  0.51188500   -0.02300500   -0.42808800
 H                  1.42066071    0.55289309   -0.18854215
 C                  0.52790644   -0.76935319   -1.72053098
 H                 -0.41329712   -1.34003732   -1.83344936
 H                  1.34036085   -1.52359977   -1.70785374
 C                  0.72897512    0.13511580   -2.93023246
 H                  1.66106460    0.72051616   -2.80108917
 H                 -0.08515414    0.88505443   -2.96224350
 C                  0.78359672   -0.61904112   -4.24571708
 H                  1.59992654   -1.36824961   -4.20746573
 H                 -0.14654410   -1.20907592   -4.37097781
 C                  0.97821181    0.27783277   -5.45577999
 H                  0.16205560    1.02476163   -5.48735439
 H                  1.90675451    0.86591667   -5.32476321
 C                  1.03022467   -0.48922765   -6.76233964
 H                  1.17179373    0.17407067   -7.62983899
 H                  1.85845658   -1.21824860   -6.76427875
 H                  0.09919305   -1.05753973   -6.92852136

 1 2 1.0 3 1.0 4 1.0 5 1.0
 2
 3
 4
 5 6 1.0 7 1.0 8 1.0
 6
 7
 8 9 1.0 10 1.0 11 1.0
 9
 10
 11 12 1.0 13 1.0 14 1.0
 12
 13
 14 15 1.0 16 1.0 17 1.0
 15
 16
 17 18 1.0 19 2.0
 18
 19 20 1.0 21 1.0
 20
 21 22 1.0 23 1.0 24 1.0
 22
 23
 24 25 1.0 26 1.0 27 1.0
 25
 26
 27 28 1.0 29 1.0 30 1.0
 28
 29
 30 31 1.0 32 1.0 33 1.0
 31
 32
 33 34 1.0 35 1.0 36 1.0
 34
 35
 36

