%lindaworkers=in-cn0533
%nprocshared=24
%mem=59800MB
%chk=20171201_def2svp_m06_90c12h24.chk
# opt=maxcycle=200 geom=connectivity def2svp integral=superfinegrid m06

Title Card Required

0 1
 C                 -6.85444300   -0.13487700   -0.16841400
 H                 -7.04021200   -0.81832800    0.67765300
 H                 -6.88444300   -0.74368300   -1.08812600
 H                 -7.69705200    0.57265200   -0.21284800
 C                 -5.52036300    0.56989000   -0.02104000
 H                 -5.36871300    1.27332400   -0.86198800
 H                 -5.52345100    1.19984300    0.88909700
 C                 -4.34402300   -0.38859700    0.04249700
 H                 -4.33509900   -1.02083500   -0.86810100
 H                 -4.48926000   -1.09459100    0.88490400
 C                 -3.00139300    0.30276500    0.18946400
 H                 -3.00708700    0.93031100    1.10287300
 H                 -2.85036900    1.00932800   -0.64970200
 C                 -1.82467700   -0.66362400    0.24692800
 H                 -1.80065600   -1.27768700   -0.67320500
 H                 -1.99464100   -1.37371900    1.08119900
 C                 -0.51188500    0.02300500    0.42808800
 H                 -0.40545700    0.63496200    1.33863500
 C                  0.51188500   -0.02300500   -0.42808800
 H                  0.55207847    0.72526893   -1.23641018
 C                  1.61027825   -1.03343942   -0.41209628
 H                  1.48966632   -1.70176578    0.46145264
 H                  2.58550515   -0.52489571   -0.27264532
 C                  1.67759586   -1.86289879   -1.68855069
 H                  1.77561103   -1.18736047   -2.56159330
 H                  0.71309741   -2.38772645   -1.83186069
 C                  2.81442083   -2.86778759   -1.69651971
 H                  3.77687294   -2.33668432   -1.55234565
 H                  2.71887010   -3.53907119   -0.81945549
 C                  2.88318074   -3.70150826   -2.96407324
 H                  1.91930056   -4.22724114   -3.10389664
 H                  2.97646356   -3.02666936   -3.83647820
 C                  4.02300686   -4.70097658   -2.95739394
 H                  4.05993674   -5.29739106   -3.88231964
 H                  4.99734815   -4.19423250   -2.85103190
 H                  3.93113540   -5.40505790   -2.11285620

 1 2 1.0 3 1.0 4 1.0 5 1.0
 2
 3
 4
 5 6 1.0 7 1.0 8 1.0
 6
 7
 8 9 1.0 10 1.0 11 1.0
 9
 10
 11 12 1.0 13 1.0 14 1.0
 12
 13
 14 15 1.0 16 1.0 17 1.0
 15
 16
 17 18 1.0 19 2.0
 18
 19 20 1.0 21 1.0
 20
 21 22 1.0 23 1.0 24 1.0
 22
 23
 24 25 1.0 26 1.0 27 1.0
 25
 26
 27 28 1.0 29 1.0 30 1.0
 28
 29
 30 31 1.0 32 1.0 33 1.0
 31
 32
 33 34 1.0 35 1.0 36 1.0
 34
 35
 36

