%LindaWorkers=in-cn0005
%NProcShared=24
%Mem=59800mb
%chk=20171201_def2svp_m06_120c12h24.chk
# hf/sto-3g geom=connectivity

Title Card Required

0 1
 C                 -6.85444300   -0.13487700   -0.16841400
 H                 -7.04021200   -0.81832800    0.67765300
 H                 -6.88444300   -0.74368300   -1.08812600
 H                 -7.69705200    0.57265200   -0.21284800
 C                 -5.52036300    0.56989000   -0.02104000
 H                 -5.36871300    1.27332400   -0.86198800
 H                 -5.52345100    1.19984300    0.88909700
 C                 -4.34402300   -0.38859700    0.04249700
 H                 -4.33509900   -1.02083500   -0.86810100
 H                 -4.48926000   -1.09459100    0.88490400
 C                 -3.00139300    0.30276500    0.18946400
 H                 -3.00708700    0.93031100    1.10287300
 H                 -2.85036900    1.00932800   -0.64970200
 C                 -1.82467700   -0.66362400    0.24692800
 H                 -1.80065600   -1.27768700   -0.67320500
 H                 -1.99464100   -1.37371900    1.08119900
 C                 -0.51188500    0.02300500    0.42808800
 H                 -0.40545700    0.63496200    1.33863500
 C                  0.51188500   -0.02300500   -0.42808800
 H                  0.85424161    0.91956752   -0.88554088
 C                  1.22794244   -1.26031160   -0.85708136
 H                  0.82953602   -2.13238016   -0.30475551
 H                  2.29894587   -1.18894282   -0.57961256
 C                  1.13462344   -1.51507784   -2.35649995
 H                  1.51392552   -0.62963113   -2.90447479
 H                  0.06891396   -1.60256091   -2.64433517
 C                  1.89073875   -2.75092326   -2.80729007
 H                  2.95643270   -2.65766979   -2.51613529
 H                  1.51477978   -3.63501304   -2.25408723
 C                  1.79669194   -3.01323362   -4.30022627
 H                  0.73098993   -3.10302733   -4.58522974
 H                  2.17124832   -2.12710146   -4.84765384
 C                  2.55614414   -4.25092830   -4.73557596
 H                  2.47879380   -4.42769445   -5.81970337
 H                  3.62848935   -4.16824546   -4.48923740
 H                  2.17596555   -5.15224755   -4.22518129

 1 2 1.0 3 1.0 4 1.0 5 1.0
 2
 3
 4
 5 6 1.0 7 1.0 8 1.0
 6
 7
 8 9 1.0 10 1.0 11 1.0
 9
 10
 11 12 1.0 13 1.0 14 1.0
 12
 13
 14 15 1.0 16 1.0 17 1.0
 15
 16
 17 18 1.0 19 2.0
 18
 19 20 1.0 21 1.0
 20
 21 22 1.0 23 1.0 24 1.0
 22
 23
 24 25 1.0 26 1.0 27 1.0
 25
 26
 27 28 1.0 29 1.0 30 1.0
 28
 29
 30 31 1.0 32 1.0 33 1.0
 31
 32
 33 34 1.0 35 1.0 36 1.0
 34
 35
 36

