24
20170630_augccpVTZ_m06_chloroflouroheptane_trans.out	Energy: -524432.6132249
C          2.54760        0.45280       -0.06306
H          2.53850        0.52681       -1.13378
H          3.46126        0.72069        0.43284
C          1.26805        0.43592        0.70002
H          1.32181       -0.31300        1.49612
H          1.17517        1.42500        1.15525
C          0.07166        0.17055       -0.18618
H          0.04321        0.94744       -0.95865
H          0.21000       -0.79019       -0.69730
C         -1.23725        0.16073        0.57438
H         -1.20232       -0.61181        1.35426
H         -1.35794        1.11575        1.10232
Cl         3.02895       -1.68098       -0.11957
F          2.39041        2.51644       -0.34198
C         -2.44387       -0.07690       -0.30964
H         -2.47971        0.69544       -1.08867
H         -2.32330       -1.02967       -0.84136
C         -3.75852       -0.08750        0.44438
H         -3.72048       -0.86001        1.22077
H         -3.87506        0.86413        0.97517
C         -4.95137       -0.32315       -0.45894
H         -4.86251       -1.28108       -0.97775
H         -5.89445       -0.32892        0.09099
H         -5.01790        0.45332       -1.22535
