%lindaworkers=in-cn0533
%nprocshared=24
%mem=59800MB
%chk=20171201_def2svp_m06_15c12h24.chk
# opt=maxcycle=200 geom=connectivity def2svp integral=superfinegrid m06

Title Card Required

0 1
 C                 -6.85444300   -0.13487700   -0.16841400
 H                 -7.04021200   -0.81832800    0.67765300
 H                 -6.88444300   -0.74368300   -1.08812600
 H                 -7.69705200    0.57265200   -0.21284800
 C                 -5.52036300    0.56989000   -0.02104000
 H                 -5.36871300    1.27332400   -0.86198800
 H                 -5.52345100    1.19984300    0.88909700
 C                 -4.34402300   -0.38859700    0.04249700
 H                 -4.33509900   -1.02083500   -0.86810100
 H                 -4.48926000   -1.09459100    0.88490400
 C                 -3.00139300    0.30276500    0.18946400
 H                 -3.00708700    0.93031100    1.10287300
 H                 -2.85036900    1.00932800   -0.64970200
 C                 -1.82467700   -0.66362400    0.24692800
 H                 -1.80065600   -1.27768700   -0.67320500
 H                 -1.99464100   -1.37371900    1.08119900
 C                 -0.51188500    0.02300500    0.42808800
 H                 -0.40545700    0.63496200    1.33863500
 C                  0.51188500   -0.02300500   -0.42808800
 H                  0.32932451   -0.41639050   -1.44141600
 C                  1.91490779    0.38541880   -0.12408434
 H                  1.96895325    0.80070793    0.90007831
 H                  2.22109095    1.20790012   -0.80151119
 C                  2.91412622   -0.75576307   -0.26946936
 H                  2.83961338   -1.18234777   -1.28958491
 H                  2.62707429   -1.57896014    0.41330942
 C                  4.34822660   -0.34098660    0.00173650
 H                  4.62956210    0.48326699   -0.68428626
 H                  4.42040133    0.09122496    1.02005729
 C                  5.34822260   -1.47567312   -0.13612056
 H                  5.06102414   -2.29609549    0.54903259
 H                  5.27065913   -1.90479489   -1.15348877
 C                  6.77609500   -1.04660184    0.13822104
 H                  7.48895646   -1.87941550    0.03424246
 H                  7.09376641   -0.25016390   -0.55619589
 H                  6.88254581   -0.64532047    1.16050103

 1 2 1.0 3 1.0 4 1.0 5 1.0
 2
 3
 4
 5 6 1.0 7 1.0 8 1.0
 6
 7
 8 9 1.0 10 1.0 11 1.0
 9
 10
 11 12 1.0 13 1.0 14 1.0
 12
 13
 14 15 1.0 16 1.0 17 1.0
 15
 16
 17 18 1.0 19 2.0
 18
 19 20 1.0 21 1.0
 20
 21 22 1.0 23 1.0 24 1.0
 22
 23
 24 25 1.0 26 1.0 27 1.0
 25
 26
 27 28 1.0 29 1.0 30 1.0
 28
 29
 30 31 1.0 32 1.0 33 1.0
 31
 32
 33 34 1.0 35 1.0 36 1.0
 34
 35
 36

