%lindaworkers=in-cn0533
%nprocshared=24
%mem=59800MB
%chk=20171201_def2svp_m06_30c12h24.chk
# opt=maxcycle=200 geom=connectivity def2svp integral=superfinegrid m06

Title Card Required

0 1
 C                 -6.85444300   -0.13487700   -0.16841400
 H                 -7.04021200   -0.81832800    0.67765300
 H                 -6.88444300   -0.74368300   -1.08812600
 H                 -7.69705200    0.57265200   -0.21284800
 C                 -5.52036300    0.56989000   -0.02104000
 H                 -5.36871300    1.27332400   -0.86198800
 H                 -5.52345100    1.19984300    0.88909700
 C                 -4.34402300   -0.38859700    0.04249700
 H                 -4.33509900   -1.02083500   -0.86810100
 H                 -4.48926000   -1.09459100    0.88490400
 C                 -3.00139300    0.30276500    0.18946400
 H                 -3.00708700    0.93031100    1.10287300
 H                 -2.85036900    1.00932800   -0.64970200
 C                 -1.82467700   -0.66362400    0.24692800
 H                 -1.80065600   -1.27768700   -0.67320500
 H                 -1.99464100   -1.37371900    1.08119900
 C                 -0.51188500    0.02300500    0.42808800
 H                 -0.40545700    0.63496200    1.33863500
 C                  0.51188500   -0.02300500   -0.42808800
 H                  0.29297256   -0.17223911   -1.49800418
 C                  1.95480311    0.07734532   -0.05982408
 H                  2.05034270    0.26703741    1.02607840
 H                  2.40981465    0.95465778   -0.56223639
 C                  2.75537577   -1.16296964   -0.43741190
 H                  2.63768821   -1.36095807   -1.52143802
 H                  2.31897123   -2.04522327    0.06995256
 C                  4.23082515   -1.05518471   -0.10026569
 H                  4.66185119   -0.17031554   -0.61055383
 H                  4.34718217   -0.85101605    0.98314073
 C                  5.03304324   -2.29084316   -0.46918899
 H                  4.59689122   -3.17086141    0.04105599
 H                  4.91185868   -2.49131642   -1.55100433
 C                  6.50463087   -2.16883069   -0.12607402
 H                  7.07269952   -3.07168125   -0.39942448
 H                  6.96710714   -1.31523353   -0.65041262
 H                  6.64957613   -2.00104080    0.95478319

 1 2 1.0 3 1.0 4 1.0 5 1.0
 2
 3
 4
 5 6 1.0 7 1.0 8 1.0
 6
 7
 8 9 1.0 10 1.0 11 1.0
 9
 10
 11 12 1.0 13 1.0 14 1.0
 12
 13
 14 15 1.0 16 1.0 17 1.0
 15
 16
 17 18 1.0 19 2.0
 18
 19 20 1.0 21 1.0
 20
 21 22 1.0 23 1.0 24 1.0
 22
 23
 24 25 1.0 26 1.0 27 1.0
 25
 26
 27 28 1.0 29 1.0 30 1.0
 28
 29
 30 31 1.0 32 1.0 33 1.0
 31
 32
 33 34 1.0 35 1.0 36 1.0
 34
 35
 36

