%LindaWorkers=in-cn0069
%NProcShared=24
%Mem=59800mb
%chk=20171201_def2svp_m06_75c12h24.chk
# hf/sto-3g geom=connectivity

Title Card Required

0 1
 C                 -6.85444300   -0.13487700   -0.16841400
 H                 -7.04021200   -0.81832800    0.67765300
 H                 -6.88444300   -0.74368300   -1.08812600
 H                 -7.69705200    0.57265200   -0.21284800
 C                 -5.52036300    0.56989000   -0.02104000
 H                 -5.36871300    1.27332400   -0.86198800
 H                 -5.52345100    1.19984300    0.88909700
 C                 -4.34402300   -0.38859700    0.04249700
 H                 -4.33509900   -1.02083500   -0.86810100
 H                 -4.48926000   -1.09459100    0.88490400
 C                 -3.00139300    0.30276500    0.18946400
 H                 -3.00708700    0.93031100    1.10287300
 H                 -2.85036900    1.00932800   -0.64970200
 C                 -1.82467700   -0.66362400    0.24692800
 H                 -1.80065600   -1.27768700   -0.67320500
 H                 -1.99464100   -1.37371900    1.08119900
 C                 -0.51188500    0.02300500    0.42808800
 H                 -0.40545700    0.63496200    1.33863500
 C                  0.51188500   -0.02300500   -0.42808800
 H                  0.43300155    0.54543801   -1.36913214
 C                  1.76330498   -0.81458625   -0.24087595
 H                  1.74905034   -1.30608333    0.75034678
 H                  2.63889500   -0.13462322   -0.22977740
 C                  1.97806029   -1.85894425   -1.32948372
 H                  1.96882837   -1.36410919   -2.32105592
 H                  1.11579506   -2.55363503   -1.34142038
 C                  3.26663453   -2.64359822   -1.16783417
 H                  4.12582838   -1.94301105   -1.15623877
 H                  3.27755492   -3.13311563   -0.17322535
 C                  3.48345314   -3.69006163   -2.24691437
 H                  2.62192121   -4.38483033   -2.25527133
 H                  3.46966705   -3.19655620   -3.23760200
 C                  4.77396731   -4.46606670   -2.07205895
 H                  4.91712760   -5.22031052   -2.86147835
 H                  5.64924353   -3.79457871   -2.09300685
 H                  4.79424198   -4.99313685   -1.10293519

 1 2 1.0 3 1.0 4 1.0 5 1.0
 2
 3
 4
 5 6 1.0 7 1.0 8 1.0
 6
 7
 8 9 1.0 10 1.0 11 1.0
 9
 10
 11 12 1.0 13 1.0 14 1.0
 12
 13
 14 15 1.0 16 1.0 17 1.0
 15
 16
 17 18 1.0 19 2.0
 18
 19 20 1.0 21 1.0
 20
 21 22 1.0 23 1.0 24 1.0
 22
 23
 24 25 1.0 26 1.0 27 1.0
 25
 26
 27 28 1.0 29 1.0 30 1.0
 28
 29
 30 31 1.0 32 1.0 33 1.0
 31
 32
 33 34 1.0 35 1.0 36 1.0
 34
 35
 36

