18
20170630_augccpVTZ_ccsd_flouroocta135triene.out	Energy: -257214.8051997
C         -3.72401        0.30490        0.00000
H         -4.62500        0.90369        0.00000
C         -2.48669        0.78623        0.00000
H         -2.39448        1.86629        0.00000
C         -1.28737       -0.00178        0.00000
H         -1.40023       -1.08205        0.00000
C         -0.05210        0.52335        0.00000
H          0.05924        1.60640        0.00000
C          1.15147       -0.24994        0.00000
H          1.04118       -1.33299        0.00000
C          2.38726        0.27283        0.00000
H          2.50078        1.35554        0.00000
F         -3.97266       -1.00253       -0.00000
C          3.59428       -0.50752        0.00000
H          3.46932       -1.58774        0.00000
C          4.82114        0.00952        0.00000
H          5.70364       -0.61446        0.00000
H          4.97555        1.08260        0.00000
