36
D90/c12h24.out	Energy: -295498.1982206
C         -6.81499       -0.50930        0.04836
C         -5.58194        0.37017       -0.01601
H         -7.74703        0.07650        0.02194
H         -6.82786       -1.11093        0.97319
H         -6.84487       -1.21693       -0.79770
C         -4.28462       -0.41913        0.00723
H         -5.58435        1.08648        0.82789
H         -5.60937        0.99547       -0.92897
C         -3.04038        0.44821       -0.04132
H         -4.27129       -1.13097       -0.84254
H         -4.25646       -1.05243        0.91675
C         -1.74400       -0.34004       -0.00495
H         -3.05876        1.16454        0.80439
H         -3.06415        1.07595       -0.95457
C         -0.50026        0.52914       -0.03419
H         -1.71863       -1.04793       -0.85747
H         -1.72632       -0.97664        0.90222
C          0.79588       -0.25890        0.01270
H         -0.52921        1.24072        0.81512
H         -0.51380        1.16174       -0.94420
C          2.03833        0.61268        0.00409
H          0.83125       -0.95999       -0.84491
H          0.80411       -0.90214        0.91510
C          3.33088       -0.18131        0.04711
H          2.00254        1.31125        0.86292
H          2.03096        1.25713       -0.89778
C          4.56410        0.70766        0.00021
H          3.35602       -0.89802       -0.79722
H          3.35918       -0.80207        0.96244
C          5.85017       -0.08575        0.04895
H          4.45754        1.48414        0.78771
H          4.58754        1.26395       -0.95490
C          7.01764       -0.74839        0.05575
H          7.82623       -0.58116        0.79031
H          7.23843       -1.51605       -0.69167
H          5.47344       -0.67282       -0.83559
