%lindaworkers=in-cn0533
%nprocshared=24
%mem=59800MB
%chk=20171201_def2svp_m06_45c12h24.chk
# opt=maxcycle=200 geom=connectivity def2svp integral=superfinegrid m06

Title Card Required

0 1
 C                 -6.85444300   -0.13487700   -0.16841400
 H                 -7.04021200   -0.81832800    0.67765300
 H                 -6.88444300   -0.74368300   -1.08812600
 H                 -7.69705200    0.57265200   -0.21284800
 C                 -5.52036300    0.56989000   -0.02104000
 H                 -5.36871300    1.27332400   -0.86198800
 H                 -5.52345100    1.19984300    0.88909700
 C                 -4.34402300   -0.38859700    0.04249700
 H                 -4.33509900   -1.02083500   -0.86810100
 H                 -4.48926000   -1.09459100    0.88490400
 C                 -3.00139300    0.30276500    0.18946400
 H                 -3.00708700    0.93031100    1.10287300
 H                 -2.85036900    1.00932800   -0.64970200
 C                 -1.82467700   -0.66362400    0.24692800
 H                 -1.80065600   -1.27768700   -0.67320500
 H                 -1.99464100   -1.37371900    1.08119900
 C                 -0.51188500    0.02300500    0.42808800
 H                 -0.40545700    0.63496200    1.33863500
 C                  0.51188500   -0.02300500   -0.42808800
 H                  0.29887846    0.08085366   -1.50454316
 C                  1.94164417   -0.23960176   -0.05852644
 H                  2.03927779   -0.28695581    1.04261858
 H                  2.54795090    0.63125003   -0.37968077
 C                  2.53596022   -1.49663426   -0.68184663
 H                  2.41507236   -1.45396992   -1.78263193
 H                  1.94705652   -2.37634234   -0.35696940
 C                  3.99981936   -1.70532593   -0.34155229
 H                  4.58392683   -0.82161605   -0.66873145
 H                  4.12043127   -1.74167590    0.75986712
 C                  4.59630386   -2.95984764   -0.95546725
 H                  4.00794413   -3.83800794   -0.62732405
 H                  4.47150128   -2.91943713   -2.05455367
 C                  6.05855042   -3.15533154   -0.60645991
 H                  6.47664837   -4.06819835   -1.05859915
 H                  6.66886581   -2.30429918   -0.95388249
 H                  6.20141045   -3.23108794    0.48499181

 1 2 1.0 3 1.0 4 1.0 5 1.0
 2
 3
 4
 5 6 1.0 7 1.0 8 1.0
 6
 7
 8 9 1.0 10 1.0 11 1.0
 9
 10
 11 12 1.0 13 1.0 14 1.0
 12
 13
 14 15 1.0 16 1.0 17 1.0
 15
 16
 17 18 1.0 19 2.0
 18
 19 20 1.0 21 1.0
 20
 21 22 1.0 23 1.0 24 1.0
 22
 23
 24 25 1.0 26 1.0 27 1.0
 25
 26
 27 28 1.0 29 1.0 30 1.0
 28
 29
 30 31 1.0 32 1.0 33 1.0
 31
 32
 33 34 1.0 35 1.0 36 1.0
 34
 35
 36

