%lindaworkers=in-cn0533
%nprocshared=24
%mem=59800MB
%chk=20171201_def2svp_m06_165c12h24.chk
# opt=maxcycle=200 geom=connectivity def2svp integral=superfinegrid m06

Title Card Required

0 1
 C                 -6.85444300   -0.13487700   -0.16841400
 H                 -7.04021200   -0.81832800    0.67765300
 H                 -6.88444300   -0.74368300   -1.08812600
 H                 -7.69705200    0.57265200   -0.21284800
 C                 -5.52036300    0.56989000   -0.02104000
 H                 -5.36871300    1.27332400   -0.86198800
 H                 -5.52345100    1.19984300    0.88909700
 C                 -4.34402300   -0.38859700    0.04249700
 H                 -4.33509900   -1.02083500   -0.86810100
 H                 -4.48926000   -1.09459100    0.88490400
 C                 -3.00139300    0.30276500    0.18946400
 H                 -3.00708700    0.93031100    1.10287300
 H                 -2.85036900    1.00932800   -0.64970200
 C                 -1.82467700   -0.66362400    0.24692800
 H                 -1.80065600   -1.27768700   -0.67320500
 H                 -1.99464100   -1.37371900    1.08119900
 C                 -0.51188500    0.02300500    0.42808800
 H                 -0.40545700    0.63496200    1.33863500
 C                  0.51188500   -0.02300500   -0.42808800
 H                  1.30993600    0.73098941   -0.33051162
 C                  0.66232361   -0.99873087   -1.54747552
 H                 -0.16956124   -1.72781960   -1.52116387
 H                  1.58910486   -1.59069491   -1.40681318
 C                  0.71913910   -0.33280270   -2.91684840
 H                  1.53945558    0.41222882   -2.92993576
 H                 -0.20842332    0.25087277   -3.07556201
 C                  0.90911890   -1.31429029   -4.05826233
 H                  1.83868029   -1.89565436   -3.89363444
 H                  0.09146652   -2.06270360   -4.04050424
 C                  0.96084146   -0.65683581   -5.42632243
 H                  0.03177929   -0.07631524   -5.58396120
 H                  1.77719859    0.09057571   -5.43801332
 C                  1.15033210   -1.64944065   -6.55637290
 H                  1.18604098   -1.15813679   -7.54121145
 H                  2.08857502   -2.21734487   -6.43542490
 H                  0.32849765   -2.38516802   -6.58298569

 1 2 1.0 3 1.0 4 1.0 5 1.0
 2
 3
 4
 5 6 1.0 7 1.0 8 1.0
 6
 7
 8 9 1.0 10 1.0 11 1.0
 9
 10
 11 12 1.0 13 1.0 14 1.0
 12
 13
 14 15 1.0 16 1.0 17 1.0
 15
 16
 17 18 1.0 19 2.0
 18
 19 20 1.0 21 1.0
 20
 21 22 1.0 23 1.0 24 1.0
 22
 23
 24 25 1.0 26 1.0 27 1.0
 25
 26
 27 28 1.0 29 1.0 30 1.0
 28
 29
 30 31 1.0 32 1.0 33 1.0
 31
 32
 33 34 1.0 35 1.0 36 1.0
 34
 35
 36

