%NProcShared=24
%Mem=59800mb
%chk=20170630_augccpVTZ_ccsdt_octa1235ene.chk
# opt freq ccsd(t)/aug-cc-pvtz geom=connectivity

oct-1,2,3,5-ene

0 1
 C                 -5.39794175    1.80652922    0.64835703
 H                 -6.31237750    1.76502268    1.20224513
 C                 -4.63510766    0.69419593    0.51532631
 C                 -3.87294777   -0.41889214    0.38291231
 C                 -3.11405770   -1.53382271    0.25295966
 H                 -3.43090834   -2.45211021    0.70193581
 C                 -1.79543468   -1.47918241   -0.54098830
 H                 -1.47909220   -0.56077544   -0.99005513
 C                 -1.03555130   -2.59376943   -0.67115575
 H                 -1.35130008   -3.51230123   -0.22224647
 C                  0.28260859   -2.53782734   -1.46534180
 H                  0.59779886   -1.61924743   -1.91448686
 C                  1.04344170   -3.65166368   -1.59545941
 H                  1.95902767   -3.61239709   -2.14756810
 H                  0.72866237   -4.57024638   -1.14613410
 H                 -5.08571011    2.72629593    0.19945561

 1 2 1.0 3 2.0 16 1.0
 2
 3 4 2.0
 4 5 2.0
 5 6 1.0 7 1.0
 6
 7 8 1.0 9 2.0
 8
 9 10 1.0 11 1.0
 10
 11 12 1.0 13 2.0
 12
 13 14 1.0 15 1.0
 14
 15
 16

